11

Cl          -2.01971811     0.41732375    -0.00701530
C           -0.30596543     0.36509037    -0.00029388
C            0.56777110     1.47712449     0.00608804
C            1.83906018     0.98609080     0.00989984
N            1.77171936    -0.38218797     0.00608191
C            0.46616306    -0.77046403    -0.00014784
O            0.07632092    -2.06553918    -0.00504359
H            0.26865357     2.50434058     0.00754660
H            2.78137460     1.49355488     0.01497598
H            2.56698811    -0.99998241     0.00769027
H            0.84415267    -2.64700730    -0.00383202
