11

Cl          -2.39258127     0.28231570    -0.01385005
C           -0.68310066     0.20635979    -0.00403803
C            0.16552497     1.27600708     0.00026502
N            1.44362678     0.77431569     0.00784403
C            1.39365231    -0.58454810     0.00826508
C            0.08349707    -0.98200816     0.00096948
O            2.50361977    -1.35609092     0.01501512
H           -0.03190061     2.32693767    -0.00140328
H            2.27812655     1.33804774     0.01230499
H           -0.28142194    -1.98626313    -0.00060125
H            3.29566201    -0.80722536     0.01951589
